**COLD MOSFET MODELS**
** nm = n+ gate NMOS, pm is the p+ gate PMOS, pmngate is n+ gate PMOS **

.model nm nmos level=8 vto=.25 k1=7.7e-2 k2=3.1e-1 k3=9.1e-2 k4=0
+ a1=2.0e-4 a2=1.3e-4 vmax=1.9e5 tox=225e-10 nsub=8e15 rd=3.9e-4 rs=3.9e-4
+ pclm=2.2 xj=0.27e-6 em=2.6e7 phi=1.15 ld=.1e-6 cgso=5.6e-10 cgdo=5.6e-10

.model pm pmos level=8 vto=-.35 k1=0 k2=3.7 k3=0 k4=3.1
+ a1=0 a2=0 vmax=1.07e5 tox=225e-10 nsub=2e16 rd=2.4e-3 rs=2.4e-3
+ pclm=2.1 xj=0.3e-6 em=3.1e7 phi=1.15 ld=.1e-6 cgso=1.9e-10 cgdo=1.9e-10

.model pmngate pmos level=8 vto=-1.50 k1=0 k2=3.7 k3=0 k4=3.1
+ a1=0 a2=0 vmax=1.07e5 tox=225e-10 nsub=2e16 rd=2.4e-3 rs=2.4e-3
+ pclm=2.1 xj=0.3e-6 em=3.1e7 phi=1.15 ld=.1e-6 cgso=1.9e-10 cgdo=1.9e-10
